this is a test "test" test! test?!.
test, test test test  
new line.test;